Version 4
SHEET 1 2192 680
WIRE 336 -128 64 -128
WIRE 1056 -128 992 -128
WIRE 1216 -128 1136 -128
WIRE 1456 -128 1216 -128
WIRE 1696 -128 1456 -128
WIRE 1968 -128 1696 -128
WIRE 336 -112 336 -128
WIRE 1696 -112 1696 -128
WIRE 1968 -112 1968 -128
WIRE 1216 -80 1216 -128
WIRE 64 0 64 -48
WIRE 336 0 336 -32
WIRE 720 0 336 0
WIRE 992 0 992 -128
WIRE 992 0 880 0
WIRE 1456 0 1456 -128
WIRE 1968 0 1968 -32
WIRE 1696 64 1696 -32
WIRE 720 80 336 80
WIRE 1408 80 1408 64
WIRE 1408 80 880 80
WIRE 336 96 336 80
WIRE 1216 96 1216 0
WIRE 1968 112 1968 80
WIRE 96 144 -96 144
WIRE 272 144 176 144
WIRE -96 160 -96 144
WIRE 352 192 336 192
WIRE 1216 208 1216 160
WIRE 1456 208 1456 64
WIRE 1456 208 1216 208
WIRE 1696 208 1696 128
WIRE 1696 208 1456 208
WIRE 1968 208 1968 192
WIRE 1968 208 1696 208
WIRE 1696 256 1696 208
WIRE 352 272 352 192
WIRE -96 320 -96 240
FLAG -96 320 0
FLAG 64 0 0
FLAG 352 272 0
FLAG 1696 256 0
SYMBOL npn 272 96 R0
SYMATTR InstName Q1
SYMATTR Value 2N3904
SYMBOL res 320 -128 R0
SYMATTR InstName R1
SYMATTR Value 250
SYMBOL res 192 128 R90
WINDOW 0 0 56 VBottom 2
WINDOW 3 32 56 VTop 2
SYMATTR InstName R2
SYMATTR Value 3K
SYMATTR SpiceLine tol=1 pwr=0.1
SYMBOL voltage -96 144 R0
WINDOW 123 0 0 Left 2
WINDOW 39 0 0 Left 2
SYMATTR InstName V1
SYMATTR Value 3.3V
SYMBOL voltage 64 -144 R0
WINDOW 123 0 0 Left 2
WINDOW 39 0 0 Left 2
SYMATTR InstName V2
SYMATTR Value 3.3V
SYMBOL Misc\\TRIAC 1424 0 R0
SYMATTR InstName U2
SYMATTR Value Q601E3
SYMBOL res 1952 96 R0
SYMATTR InstName R5
SYMATTR Value 39
SYMBOL Misc\\signal 1968 -128 R0
WINDOW 123 0 0 Left 2
WINDOW 39 0 0 Left 2
SYMATTR InstName V3
SYMATTR Value SINE(0 24 60)
SYMBOL LED_TRIAC 768 16 R0
SYMATTR SpiceModel MOC3021
SYMATTR InstName U1
SYMBOL ind 1952 -16 R0
SYMATTR InstName L1
SYMATTR Value 194.4mH
SYMBOL cap 1200 96 R0
SYMATTR InstName C1
SYMATTR Value 120pF
SYMBOL res 1680 -128 R0
SYMATTR InstName R4
SYMATTR Value 210k
SYMBOL res 1200 -96 R0
SYMATTR InstName R6
SYMATTR Value 40
SYMBOL cap 1680 64 R0
SYMATTR InstName C2
SYMATTR Value 10pF
SYMBOL res 1152 -144 R90
WINDOW 0 0 56 VBottom 2
WINDOW 3 32 56 VTop 2
SYMATTR InstName R3
SYMATTR Value 40
TEXT -112 424 Left 2 !.lib C:\\Users\\jalb_\\Documents\\Ltspice simulation\\Tecc_triac.lib
TEXT -112 472 Left 2 !.lib C:\\Users\\jalb_\\Documents\\Ltspice simulation\\standard_bjt.lib
TEXT -128 496 Left 2 !.tran 1s
TEXT -128 552 Left 2 !.lib C:\\Users\\jalb_\\Documents\\Ltspice simulation\\MOC302x.lib
